<?xml version="1.0" encoding="UTF-8"?>

<!-- generated on 2023-11-28 17:08:05 by Eclipse SUMO libsumo Version 1.19.0
<configuration xmlns:xsi="http://www.w3.org/2001/XMLSchema-instance" xsi:noNamespaceSchemaLocation="http://sumo.dlr.de/xsd/libsumoConfiguration.xsd">

    <input>
        <net-file value="scenarios_sumo/scenario_89_T/DEU_Ffb-1_7_I-1-1.net.xml"/>
        <route-files value="scenarios_sumo/scenario_89_T/DEU_Ffb-1_7_I-1-1.vehicles.rou.xml,scenarios_sumo/scenario_89_T/DEU_Ffb-1_7_I-1-1.pedestrians.rou.xml"/>
        <additional-files value="scenarios_sumo/scenario_89_T/DEU_Ffb-1_7_I-1-1.add.xml"/>
    </input>

    <output>
        <lanechange-output value="scenarios_sumo/scenario_89_T/output_lanechange.txt"/>
    </output>

    <time>
        <begin value="0"/>
        <step-length value="0.1"/>
    </time>

    <processing>
        <lateral-resolution value="1.0"/>
        <time-to-teleport value="-1"/>
        <lanechange.duration value="0"/>
    </processing>

    <report>
        <verbose value="true"/>
        <no-step-log value="true"/>
    </report>

    <random_number>
        <seed value="1234"/>
    </random_number>

</configuration>
-->

<lanechanges>
</lanechanges>
